INIT MASTER(S)
NASTRAN OP2NEW=0,SYSTEM(319)=1
ID plate,Femap
SOL SESTATIC
CEND
  TITLE = static_test
  ECHO = NONE
  DISPLACEMENT = ALL
  SPCFORCE = ALL
  OLOAD = ALL
  FORCE(CORNER) = ALL
  STRESS(CORNER) = ALL
  STRAIN(FIBER,CORNER) = ALL
  SPC = 1
  LOAD = 1
BEGIN BULK
$ ***************************************************************************
$   Written by : Femap
$   Version    : 11.4.2
$   Translator : MSC/MD Nastran
$   From Model : C:\Users\fschwa02\Desktop\SOL_101\plate.modfem
$   Date       : Sun Apr 21 18:55:02 2019
$   Output To  : C:\Users\fschwa02\Desktop\SOL_101\
$ ***************************************************************************
$
PARAM,PRGPST,YES
PARAM,AUTOSPC,YES
PARAM,GRDPNT,0
CORD2C         1       0      0.      0.      0.      0.      0.      1.+FEMAPC1
+FEMAPC1      1.      0.      1.        
CORD2S         2       0      0.      0.      0.      0.      0.      1.+FEMAPC2
+FEMAPC2      1.      0.      1.        
$ Femap Load Set 1 : 100lbf
FORCE          1       2       0      1.    100.      0.      0.
FORCE          1       3       0      1.    100.      0.      0.
$ Femap Constraint Set 1 : Fixed
SPC1           1  123456       1
SPC1           1  123456       4
$ Femap Property 1 : plate
PSHELL         1       1    .125       1               1              0.
$ Femap Material 1 : A286 Alloy Steel-Solution Treated and Aged,   Min Properties
MAT1           1  2.91+7             .31    .287    9.-6     70.        +       
+        130000.  85000.  85000.
MAT4           11.6667-442.46979    .287                        
GRID           1       0      0.      0.      0.       0
GRID           2       0      1.      0.      0.       0
GRID           3       0      1.      1.      0.       0
GRID           4       0      0.      1.      0.       0
CQUAD4         1       1       4       3       2       1                
ENDDATA
